data/D031431/Loads.dss
New Load.load_load1 conn=wye bus1=n310522.1.2.3 kV=0.433 Vminpu=0.7 Vmaxpu=1.3 model=1 kW=1.0 kvar=1.00001918018394 Phases=4
New Load.load_load2 conn=wye bus1=n310523.1.2.3 kV=0.433 Vminpu=0.7 Vmaxpu=1.3 model=1 kW=1.0 kvar=1.00001918018394 Phases=4
New Load.load_load3 conn=wye bus1=n310523.1.2.3 kV=0.433 Vminpu=0.7 Vmaxpu=1.3 model=1 kW=1.0 kvar=1.00001918018394 Phases=4
New Load.load_load4 conn=wye bus1=n310523.1.2.3 kV=0.433 Vminpu=0.7 Vmaxpu=1.3 model=1 kW=1.0 kvar=1.00001918018394 Phases=4
New Load.load_load5 conn=wye bus1=n310523.1.2.3 kV=0.433 Vminpu=0.7 Vmaxpu=1.3 model=1 kW=1.0 kvar=1.00001918018394 Phases=4
